LAMMPS (23 Oct 2017)
fix atomify all atomify
units real
atom_style full
variable T equal 100
#variable rho equal 0.01

region box block 0 20 0 20 0 20
create_box 1 box bond/types 1 extra/bond/per/atom 1
Created orthogonal box = (0 0 0) to (20 20 20)

pair_style lj/class2 10.0
pair_coeff * * 0.05980 3.8008
mass * 14.0

bond_style class2
bond_coeff 1 1.0977 1651.3730 -4069.3178 5984.9629
neigh_modify every 1 delay 0 check yes

molecule N2 N2.molecule
Read molecule N2:
  2 atoms with 1 types
  1 bonds with 1 types
  0 angles with 0 types
  0 dihedrals with 0 types
  0 impropers with 0 types

create_atoms 0 random 500 12345 box mol N2 1234
Created 1000 atoms
  Time spent = 0.00405884 secs

thermo_style	custom step atoms temp epair etotal press
thermo          100

timestep 2
fix nvt all nvt temp $T $T 100.0
fix nvt all nvt temp 100 $T 100.0
fix nvt all nvt temp 100 100 100.0

minimize 1e-4 1e-4 100 100
  update every 1 steps, delay 0 steps, check yes
Step Atoms Temp E_pair TotEng Press
0     1000            0 2.7510001e+12 2.7510001e+12 7.0738554e+13
Loop time of 1.77912 on 1 procs for 79 steps with 1000 atoms

Minimization stats:
  Stopping criterion = max force evaluations
  Energy initial, next-to-last, final =
  Force two-norm initial, final = 2.421e+14 1119.35
  Force max component initial, final = 1.36208e+14 321.055
  Final line search alpha, max atom move = 0.000524676 0.16845
  Iterations, force evaluations = 79 100

velocity all create $T 4928459
velocity all create 100 4928459

run             10000
Step Atoms Temp E_pair TotEng Press
79     1000          100    27608.992    28179.301    977310.62
Averages over the last 51 of 102 rows, steps 5100 to 10079:
Atoms Temp E_pair TotEng Press
1000 99.7725 20284.9 20742.4 765359
Loop time of 155.009 on 1 procs for 10000 steps with 1000 atoms

unfix nvt
fix nve all nve

variable eFlux equal 0.001
fix heat all heat 1 0.001 region box
# Store the time when we started adding energy
variable currentTime equal $(time)
variable currentTime equal 20000
run 1000
Step Atoms Temp E_pair TotEng Press
10079     1000    94.999595    20282.053    20726.096    765403.37
Averages over the last 6 of 12 rows, steps 10600 to 11079:
Atoms Temp E_pair TotEng Press
1000 97.3408 20277.5 20727.6 765084
Loop time of 14.2924 on 1 procs for 1000 steps with 1000 atoms

compute temp all temp
# Energy is flux * time
variable dQ equal v_eFlux*(time-v_currentTime)
# Temperature was $T when we started adding energy
variable dT equal c_temp-$T
variable dT equal c_temp-100
# Heat capacity is dQ/dT
variable heatCapacity equal v_dQ/v_dT
thermo_style custom step temp v_dQ v_dT v_heatCapacity
thermo 100
run 40000
Step Temp v_dQ v_dT v_heatCapacity
11079    96.529224            2   -3.4707761  -0.57623999
Averages over the last 201 of 402 rows, steps 31100 to 51079:
Temp v_dQ v_dT v_heatCapacity
110.447 62.0418 10.4472 7.80088
Loop time of 586.4 on 1 procs for 40000 steps with 1000 atoms
